Circuit: *** SPICE deck for cell compx_func_4_size_2_sim{lay} from library SCL

Ignoring BSIM parameter HDIF
Ignoring BSIM parameter ACM
Ignoring BSIM parameter XL
Ignoring BSIM parameter XW
Ignoring BSIM parameter HDIF
Ignoring BSIM parameter ACM
Ignoring BSIM parameter XL
Ignoring BSIM parameter XW
Direct Newton iteration for .op point succeeded.

tpdr=8.59568e-009 FROM 0 TO 8.59568e-009
tpdf=2.38591e-009 FROM 0 TO 2.38591e-009

Measurement "trise" FAIL'ed
tfall=3.11705e-009 FROM 1.10381e-009 TO 4.22086e-009


Date: Tue May 18 02:26:17 2021
Total elapsed time: 0.133 seconds.

tnom = 27
temp = 27
method = modified trap
totiter = 2829
traniter = 2821
tranpoints = 1345
accept = 1274
rejected = 71
matrix size = 8
fillins = 0
solver = Normal
Matrix Compiler1: 336 bytes object code size  0.1/0.1/[0.1]
Matrix Compiler2: off  [0.1]/0.2/0.1

