Circuit: *** SPICE deck for cell compx_func_4_size_1_sim{lay} from library SCL

Ignoring BSIM parameter HDIF
Ignoring BSIM parameter ACM
Ignoring BSIM parameter XL
Ignoring BSIM parameter XW
Ignoring BSIM parameter HDIF
Ignoring BSIM parameter ACM
Ignoring BSIM parameter XL
Ignoring BSIM parameter XW
Direct Newton iteration for .op point succeeded.

tpdr=8.97573e-009 FROM 0 TO 8.97573e-009
tpdf=4.06394e-009 FROM 0 TO 4.06394e-009

Measurement "trise" FAIL'ed
tfall=1.43197e-008 FROM 1.43256e-009 TO 1.57522e-008


Date: Tue May 18 02:25:18 2021
Total elapsed time: 0.126 seconds.

tnom = 27
temp = 27
method = modified trap
totiter = 2557
traniter = 2549
tranpoints = 1219
accept = 1181
rejected = 38
matrix size = 8
fillins = 0
solver = Normal
Matrix Compiler1:      20 opcodes  0.1/[0.1]/0.1
Matrix Compiler2: off  [0.1]/0.1/0.1

