Circuit: *** SPICE deck for cell compx_func_4_size_4_sim{lay} from library SCL

Ignoring BSIM parameter HDIF
Ignoring BSIM parameter ACM
Ignoring BSIM parameter XL
Ignoring BSIM parameter XW
Ignoring BSIM parameter HDIF
Ignoring BSIM parameter ACM
Ignoring BSIM parameter XL
Ignoring BSIM parameter XW
Direct Newton iteration for .op point succeeded.

tpdr=7.81825e-009 FROM 0 TO 7.81825e-009
tpdf=1.72266e-009 FROM 0 TO 1.72266e-009
trise=2.08919e-009 FROM 7.00467e-009 TO 9.09386e-009
tfall=1.8486e-009 FROM 9.51305e-010 TO 2.79991e-009


Date: Tue May 18 02:27:18 2021
Total elapsed time: 0.150 seconds.

tnom = 27
temp = 27
method = modified trap
totiter = 2892
traniter = 2869
tranpoints = 1342
accept = 1279
rejected = 63
matrix size = 8
fillins = 0
solver = Normal
Thread vector: 14.0/9.6[2] 2.1/2.2[1] 0.8/1.3[1] 0.1/0.9[1]  2592/500
Matrix Compiler1: 354 bytes object code size  0.1/0.1/[0.0]
Matrix Compiler2: 690 bytes object code size  0.1/0.1/[0.1]

