Circuit: *** SPICE deck for cell inverter_size_2_sim{lay} from library SCL

Ignoring BSIM parameter HDIF
Ignoring BSIM parameter ACM
Ignoring BSIM parameter XL
Ignoring BSIM parameter XW
Ignoring BSIM parameter HDIF
Ignoring BSIM parameter ACM
Ignoring BSIM parameter XL
Ignoring BSIM parameter XW
Direct Newton iteration for .op point succeeded.

tpdr=8.79402e-009 FROM 0 TO 8.79402e-009
tpdf=3.36411e-009 FROM 0 TO 3.36411e-009

Measurement "trise" FAIL'ed
tfall=4.76053e-009 FROM 1.30301e-009 TO 6.06354e-009


Date: Tue May 18 02:21:22 2021
Total elapsed time: 0.121 seconds.

tnom = 27
temp = 27
method = modified trap
totiter = 2477
traniter = 2470
tranpoints = 1219
accept = 1181
rejected = 38
matrix size = 5
fillins = 0
solver = Normal
Matrix Compiler1: 204 bytes object code size  0.1/0.0/[0.0]
Matrix Compiler2: 311 bytes object code size  0.0/0.1/[0.0]

