Circuit: *** SPICE deck for cell inverter_size_8_sim{lay} from library SCL

Ignoring BSIM parameter HDIF
Ignoring BSIM parameter ACM
Ignoring BSIM parameter XL
Ignoring BSIM parameter XW
Ignoring BSIM parameter HDIF
Ignoring BSIM parameter ACM
Ignoring BSIM parameter XL
Ignoring BSIM parameter XW
Direct Newton iteration for .op point succeeded.

tpdr=5.1694e-009 FROM 0 TO 5.1694e-009
tpdf=1.38727e-010 FROM 0 TO 1.38727e-010
trise=1.92982e-010 FROM 5.08108e-009 TO 5.27406e-009
tfall=6.6425e-011 FROM 1.18882e-010 TO 1.85307e-010


Date: Tue May 18 04:12:35 2021
Total elapsed time: 0.092 seconds.

tnom = 27
temp = 27
method = modified trap
totiter = 2714
traniter = 2709
tranpoints = 1111
accept = 1090
rejected = 21
matrix size = 5
fillins = 0
solver = Normal
Matrix Compiler1: 132 bytes object code size  0.1/0.0/[0.0]
Matrix Compiler2: off  [0.0]/0.0/0.0


