Circuit: *** SPICE deck for cell tau_result{sch} from library to_calculate_cinv

Ignoring BSIM parameter HDIF
Ignoring BSIM parameter ACM
Ignoring BSIM parameter XL
Ignoring BSIM parameter XW
Ignoring BSIM parameter HDIF
Ignoring BSIM parameter ACM
Ignoring BSIM parameter XL
Ignoring BSIM parameter XW
Limiting rise time of source vin to 2e-009
Limiting fall time of source vin to 2e-009
Warning: Pd = 0 is less than W.
Warning: Ps = 0 is less than W.
Warning: Pd = 0 is less than W.
Warning: Ps = 0 is less than W.
Direct Newton iteration for .op point succeeded.

tau=1.32424e-009 FROM 1e-008 TO 1.13242e-008


Date: Sun May 16 13:59:44 2021
Total elapsed time: 0.111 seconds.

tnom = 27
temp = 27
method = modified trap
totiter = 2847
traniter = 2839
tranpoints = 1102
accept = 1086
rejected = 16
matrix size = 6
fillins = 0
solver = Normal
Matrix Compiler1:      11 opcodes  0.1/[0.1]/0.1
Matrix Compiler2: 408 bytes object code size  0.1/0.1/[0.1]


